**
** ABAQUS Input Deck Generated by HyperMesh Version  : 2022.0.0.33
** Generated using HyperMesh-Abaqus Template Version : 2022.0.0.33
** Generated on 04-25-2024 at 20:38:17
**
**   Template:  ABAQUS/STANDARD 3D
** 
*NODE
         1,  50.0           ,  49.999999999989,  24.999999999989
         2,  50.0           ,  47.430904080629,  22.496906619058
         3,  50.0           ,  44.794155560966,  20.0651637242  
         4,  50.0           ,  42.086608351424,  17.712826025261
         5,  50.0           ,  39.305014835514,  15.448841912199
         6,  50.0           ,  36.446055051454,  13.283149288136
         7,  50.0           ,  33.506909802314,  11.227130045004
         8,  50.0           ,  30.485870656564,  9.293883096887 
         9,  50.0           ,  27.381844397886,  7.4976540263   
        10,  50.0           ,  24.194470110789,  5.8537238394186
        11,  50.0           ,  20.925333963907,  4.3786960150103
        12,  50.0           ,  17.578580269024,  3.0900648427451
        13,  50.0           ,  14.1603132153  ,  2.0051447035537
        14,  50.0           ,  10.679856022373,  1.1405932465859
        15,  50.0           ,  7.1494255725165,  0.5111428601693
        16,  50.0           ,  3.5837662513816,  0.1284338054452
        17,  50.0           ,  -5.71882893E-06,  1.456612608E-13
        18,  50.0           ,  -3.583768904024,  0.1284339955743
        19,  50.0           ,  -7.149406256632,  0.5111400982236
        20,  50.0           ,  -10.67989162129,  1.1406008504249
** ... 813 like lines cut
**HW_COMPONENT     ID=1     COLOR=37     NAME=NONE     PROPERTY=shell_al-1p0
*ELEMENT,TYPE=S8R
       256,       830,       806,       804,       822,       833,       805,       823,       831
       255,       766,       764,       806,       830,       765,       807,       833,       829
       254,       682,       830,       822,       684,       832,       831,       821,       683
       253,       680,       766,       830,       682,       767,       829,       832,       681
       252,       825,       802,       508,       506,       828,       801,       507,       826
       251,       822,       804,       802,       825,       823,       803,       828,       824
       250,       686,       825,       506,       504,       827,       826,       505,       687
       249,       684,       822,       825,       686,       821,       824,       827,       685
       248,       817,       150,       148,       809,       820,       149,       810,       818
       247,       762,       152,       150,       817,       761,       151,       820,       816
       246,       806,       817,       809,       804,       819,       818,       808,       805
       245,       764,       762,       817,       806,       763,       816,       819,       807
       244,       812,       146,       144,       510,       815,       145,       511,       813
       243,       809,       148,       146,       812,       810,       147,       815,       811
       242,       802,       812,       510,       508,       814,       813,       509,       801
       241,       804,       809,       812,       802,       808,       811,       814,       803
       240,       797,       773,       771,       789,       800,       772,       790,       798
       239,        11,        13,       773,       797,        12,       774,       800,       796
       238,       674,       797,       789,       676,       799,       798,       788,       675
       237,         9,        11,       797,       674,        10,       796,       799,       673
** ... 236 like lines cut
*ELSET, ELSET=HMprop_shell_al-1p0
         1,         2,         3,         4,         5,         6,         7,         8,
         9,        10,        11,        12,        13,        14,        15,        16,
        17,        18,        19,        20,        21,        22,        23,        24,
        25,        26,        27,        28,        29,        30,        31,        32,
        33,        34,        35,        36,        37,        38,        39,        40,
        41,        42,        43,        44,        45,        46,        47,        48,
        49,        50,        51,        52,        53,        54,        55,        56,
        57,        58,        59,        60,        61,        62,        63,        64,
        65,        66,        67,        68,        69,        70,        71,        72,
        73,        74,        75,        76,        77,        78,        79,        80,
        81,        82,        83,        84,        85,        86,        87,        88,
        89,        90,        91,        92,        93,        94,        95,        96,
        97,        98,        99,       100,       101,       102,       103,       104,
       105,       106,       107,       108,       109,       110,       111,       112,
       113,       114,       115,       116,       117,       118,       119,       120,
       121,       122,       123,       124,       125,       126,       127,       128,
       129,       130,       131,       132,       133,       134,       135,       136,
       137,       138,       139,       140,       141,       142,       143,       144,
       145,       146,       147,       148,       149,       150,       151,       152,
       153,       154,       155,       156,       157,       158,       159,       160,
** ... 12 like lines cut
**HM_set_by_property     7          1
*SHELL SECTION, ELSET=HMprop_shell_al-1p0, MATERIAL=AL
1.0       ,
**HMNAME MATS          1 AL     6
*MATERIAL, NAME=AL
*DENSITY
2.7000E-09,0.0       
*ELASTIC, TYPE = ISOTROPIC
72000.0   ,0.33      ,0.0       
**HMNAME LOADSTEP          1 step-1
*STEP
*STATIC
**HWNAME LOADCOL          2 force
**HWCOLOR LOADCOL          2    29
*CLOAD
17,3,1000.0         
**HWNAME LOADCOL          1 fix
**HWCOLOR LOADCOL          1    18
*BOUNDARY
65,1,6,0.0
66,1,6,0.0
67,1,6,0.0
68,1,6,0.0
69,1,6,0.0
70,1,6,0.0
71,1,6,0.0
72,1,6,0.0
73,1,6,0.0
74,1,6,0.0
75,1,6,0.0
76,1,6,0.0
77,1,6,0.0
78,1,6,0.0
79,1,6,0.0
80,1,6,0.0
81,1,6,0.0
82,1,6,0.0
83,1,6,0.0
84,1,6,0.0
** ... 13 like lines cut
*OUTPUT, FIELD, VARIABLE = PRESELECT
*END STEP
*****
