**
** ABAQUS Input Deck Generated by HyperMesh Version  : 2022.0.0.33
** Generated using HyperMesh-Abaqus Template Version : 2022.0.0.33
** Generated on 04-25-2024 at 19:05:31
** 
**   Template:  ABAQUS/STANDARD 3D
**  
*NODE
         1,  50.0           ,  49.999999999989,  24.999999999989
         2,  50.0           ,  44.794155560966,  20.0651637242  
         3,  50.0           ,  39.305014835514,  15.448841912199
         4,  50.0           ,  33.506909802314,  11.227130045004
         5,  50.0           ,  27.381844397886,  7.4976540263   
         6,  50.0           ,  20.925333963907,  4.3786960150103
         7,  50.0           ,  14.1603132153  ,  2.0051447035537
         8,  50.0           ,  7.1494255725165,  0.5111428601693
         9,  50.0           ,  -5.71882893E-06,  1.456612608E-13
        10,  50.0           ,  -7.149406256632,  0.5111400982236
        11,  50.0           ,  -14.16027930323,  2.0051350994559
        12,  50.0           ,  -20.92535213643,  4.378703620337 
        13,  50.0           ,  -27.38196325276,  7.4977191157544
        14,  50.0           ,  -33.50692874062,  11.227142736288
        15,  50.0           ,  -39.30505409523,  15.44887277429 
        16,  50.0           ,  -44.79420260952,  20.065205874232
        17,  50.0           ,  -50.00000000003,  25.000000000031
        18,  43.75          ,  -50.00000000003,  25.000000000032
        19,  37.5           ,  -50.00000000003,  25.000000000032
        20,  31.25          ,  -50.00000000003,  25.000000000032
** ... 269 like lines cut
**HW_COMPONENT     ID=1     COLOR=37     NAME=NONE     PROPERTY=shell_al-1p0
*ELEMENT,TYPE=S4R
         1,        98,       100,       101,        97
         2,        97,       101,        94,        95
         3,       100,        88,        89,       101
         4,       101,        89,        90,        94
         5,        81,        82,       102,        99
         6,        99,       102,       100,        98
         7,        82,        83,        87,       102
         8,       102,        87,        88,       100
         9,        70,       103,       104,        69
        10,        69,       104,        96,        68
        11,       103,        98,        97,       104
        12,       104,        97,        95,        96
        13,        72,        80,       105,        71
        14,        71,       105,       103,        70
        15,        80,        81,        99,       105
        16,       105,        99,        98,       103
        17,       107,       109,       110,       106
        18,       106,       110,        38,        39
        19,       109,        92,        93,       110
        20,       110,        93,        37,        38
** ... 236 like lines cut
*ELSET, ELSET=HMprop_shell_al-1p0
         1,         2,         3,         4,         5,         6,         7,         8,
         9,        10,        11,        12,        13,        14,        15,        16,
        17,        18,        19,        20,        21,        22,        23,        24,
        25,        26,        27,        28,        29,        30,        31,        32,
        33,        34,        35,        36,        37,        38,        39,        40,
        41,        42,        43,        44,        45,        46,        47,        48,
        49,        50,        51,        52,        53,        54,        55,        56,
        57,        58,        59,        60,        61,        62,        63,        64,
        65,        66,        67,        68,        69,        70,        71,        72,
        73,        74,        75,        76,        77,        78,        79,        80,
        81,        82,        83,        84,        85,        86,        87,        88,
        89,        90,        91,        92,        93,        94,        95,        96,
        97,        98,        99,       100,       101,       102,       103,       104,
       105,       106,       107,       108,       109,       110,       111,       112,
       113,       114,       115,       116,       117,       118,       119,       120,
       121,       122,       123,       124,       125,       126,       127,       128,
       129,       130,       131,       132,       133,       134,       135,       136,
       137,       138,       139,       140,       141,       142,       143,       144,
       145,       146,       147,       148,       149,       150,       151,       152,
       153,       154,       155,       156,       157,       158,       159,       160,
** ... 12 like lines cut
**HM_set_by_property     7          1
*SHELL SECTION, ELSET=HMprop_shell_al-1p0, MATERIAL=AL
1.0       ,
**HMNAME MATS          1 AL     6
*MATERIAL, NAME=AL
*DENSITY
2.7000E-09,0.0       
*ELASTIC, TYPE = ISOTROPIC
72000.0   ,0.33      ,0.0       
**HMNAME LOADSTEP          1 step-1
*STEP
*STATIC
**HWNAME LOADCOL          1 fix
**HWCOLOR LOADCOL          1    29
*BOUNDARY
49,1,6,0.0
48,1,6,0.0
47,1,6,0.0
46,1,6,0.0
45,1,6,0.0
44,1,6,0.0
43,1,6,0.0
42,1,6,0.0
41,1,6,0.0
40,1,6,0.0
39,1,6,0.0
38,1,6,0.0
37,1,6,0.0
36,1,6,0.0
35,1,6,0.0
34,1,6,0.0
33,1,6,0.0
**HWNAME LOADCOL          2 force
**HWCOLOR LOADCOL          2     4
*CLOAD
9,3,1000.0         
*OUTPUT, FIELD, VARIABLE = PRESELECT
*END STEP
*****
